launcher/output/tcopflowout/t3.m
function mpc = t3

%%-----  Power Flow Data  -----%%
%% system MVA base
mpc.baseMVA = 100;

%% OPF objective
mpc.obj = 0;

%% OPF convergence status
mpc.converged = 1;

%% bus data
%	bus_i	type	Pd	Qd	Gs	Bs	area	Vm	Va	baseKV	zone	Vmax	Vmin	mult_Pmis	mult_Qmis	Pslack	Qslack
mpc.bus = [
	1	1	0	0	0	0	1	0.972570943	-0.765615347	115	2	1.1	0.9	1.01648904e-08	-1.54143466e-08	0	0;
	2	1	4.50687621	1.28070907	0	0	1	0.97249577	-0.774209245	115	2	1.1	0.9	1.4061518e-08	-1.39001626e-08	0	0;
	3	1	0	0	0	0	1	1.01195501	-4.014975	115	4	1.1	0.9	-8.72099097e-08	-5.44357005e-07	0	0;
	4	1	1.0623835	0.299967105	0	0	1	1.01193921	-4.01684218	115	4	1.1	0.9	-8.63801173e-08	-5.44281413e-07	0	0;
	5	1	0	0	0	0	1	0.993302823	-2.6101619	115	6	1.1	0.9	-4.72752025e-08	-3.52686446e-07	0	0;
	6	1	4.66390176	1.32583874	0	0	1	0.993225679	-2.61866608	115	6	1.1	0.9	-4.34221195e-08	-3.51499987e-07	0	0;
	7	1	0	0	0	0	1	0.968471526	-1.25133093	115	2	1.1	0.9	1.61395951e-08	-1.25539361e-09	0	0;
	8	1	14.4781111	4.1287621	0	0	1	0.968240635	-1.27794254	115	2	1.1	0.9	2.875047e-08	2.80730477e-09	0	0;
	9	1	0	0	0	0	1	0.970060128	-0.963915912	115	2	1.1	0.9	1.27082504e-08	-7.34095324e-09	0	0;
	10	1	26.0288872	7.41591539	0	0	1	0.969599135	-1.02417304	115	2	1.1	0.9	3.650962e-08	8.04995125e-12	0	0;
	11	1	0	0	0	0	1	1.0249313	-3.10203246	115	4	1.1	0.9	-8.14210183e-08	-5.75353231e-07	0	0;
	12	1	0.187479441	0.0562438322	0	0	1	1.02492838	-3.10237735	115	4	1.1	0.9	-8.1328604e-08	-5.75694759e-07	0	0;
	13	1	1.5748273	0.449950658	0	0	1	1.02490595	-3.10497799	115	4	1.1	0.9	-8.02224411e-08	-5.75385794e-07	0	0;
	14	1	0	0	0	0	1	1.01517573	-2.4691114	230	4	1.1	0.9	-6.36045103e-08	-4.48287288e-07	0	0;
	15	1	0	0	0	30	1	1.02253465	-2.95505699	115	4	1.1	0.9	-6.8678531e-08	-4.92418107e-07	0	0;
	16	1	27.9719326	7.97412555	0	0	1	1.02213333	-3.00170887	115	4	1.1	0.9	-4.37837078e-08	-4.85603019e-07	0	0;
	17	1	0	0	0	0	1	0.98988434	-3.0206829	115	4	1.1	0.9	-3.26765189e-08	-2.3226825e-07	0	0;
	18	1	0.443701343	0.124986294	0	0	1	0.989877128	-3.02166473	115	4	1.1	0.9	-3.22883558e-08	-2.31993841e-07	0	0;
	19	1	0.481197231	0.137484923	0	0	1	0.989877565	-3.02150793	115	4	1.1	0.9	-3.22549997e-08	-2.32019924e-07	0	0;
	20	1	0.70617256	0.19997807	0	0	1	0.98987315	-3.02198881	115	4	1.1	0.9	-3.20645417e-08	-2.31956938e-07	0	0;
	21	1	2.88093407	0.818660225	0	0	1	0.989833702	-3.02702361	115	4	1.1	0.9	-3.02696451e-08	-2.31419265e-07	0	0;
	22	1	0	0	0	0	1	1.02651803	-3.20457226	115	4	1.1	0.9	-9.18136608e-08	-6.41271638e-07	0	0;
	23	1	0.881153372	0.249972588	0	0	1	1.0265049	-3.20603226	115	4	1.1	0.9	-9.11773621e-08	-6.41448373e-07	0	0;
	24	1	1.49983553	0.424953399	0	0	1	1.0264953	-3.20691476	115	4	1.1	0.9	-9.06853227e-08	-6.41288529e-07	0	0;
	25	1	0	0	0	0	1	1.00174637	-2.89228932	115	6	1.1	0.9	-5.72285459e-08	-4.10125713e-07	0	0;
	26	1	0.791983318	0.228795181	0	0	1	1.00173454	-2.89359833	115	6	1.1	0.9	-5.65847135e-08	-4.09960875e-07	0	0;
	27	1	0	0	0	0	1	1.02732801	-3.23037254	115	4	1.1	0.9	-9.12455703e-08	-6.34349089e-07	0	0;
	28	1	1.45609032	0.418704084	0	0	1	1.02730354	-3.23337266	115	4	1.1	0.9	-9.0157938e-08	-6.34496426e-07	0	0;
	29	1	0	0	0	0	1	0.971018725	-0.579666297	115	2	1.1	0.9	1.0024982e-08	-1.9735776e-08	0	0;
	30	1	36.0367138	10.270067	0	0	1	0.970429044	-0.643938147	115	2	1.1	0.9	4.55073119e-08	-9.18876228e-09	0	0;
	31	1	0	0	0	0	1	0.976374815	-3.12035362	115	7	1.1	0.9	-1.88156499e-08	-1.46964672e-07	0	0;
	32	1	0.356224924	0.104772036	0	0	1	0.976368213	-3.12114318	115	7	1.1	0.9	-1.84470535e-08	-1.4645716e-07	0	0;
	33	1	4.49821277	1.28520365	0	0	1	0.976302571	-3.12978458	115	7	1.1	0.9	-1.50031772e-08	-1.45496377e-07	0	0;
	34	1	0	0	0	0	1	1.01669554	-3.68301996	115	4	1.1	0.9	-9.13935516e-08	-5.97420452e-07	0	0;
	35	1	12.9735773	3.6995943	0	0	1	1.01648834	-3.70826639	115	4	1.1	0.9	-8.08392048e-08	-5.94655418e-07	0	0;
	36	1	0	0	0	0	1	0.984417731	-3.120957	115	7	1.1	0.9	-2.12411463e-08	-1.64677492e-07	0	0;
	37	1	2.49357447	0.712449848	0	0	1	0.984379658	-3.12563114	115	7	1.1	0.9	-1.91251984e-08	-1.63855162e-07	0	0;
	38	1	20.821696	5.93708207	0	0	1	0.984063889	-3.16184242	115	7	1.1	0.9	-2.99595647e-09	-1.59235265e-07	0	0;
	39	1	4.63074219	1.3186054	0	0	1	1.00093636	-4.22084447	115	4	1.1	0.9	-6.90339914e-08	-4.07888285e-07	0	0;
	40	1	1.2748602	0.362460252	0	0	1	1.00091869	-4.22300215	115	4	1.1	0.9	-6.79924739e-08	-4.07603614e-07	0	0;
	41	1	23.2676195	6.63315287	0	0	1	1.02141201	-4.61102868	115	5	1.1	0.9	-8.1377137e-08	-4.54597635e-07	0	0;
	42	1	6.6367722	1.89354235	0	0	1	1.00439595	-4.02150546	115	4	1.1	0.9	-7.06527163e-08	-4.15087493e-07	0	0;
	43	1	1.27461046	0.359818263	0	0	1	0.971982312	-2.32848585	115	2	1.1	0.9	-8.2340094e-09	-9.30456124e-08	0	0;
	44	1	2.5934656	0.737419134	0	0	1	0.998459793	-3.4573415	115	4	1.1	0.9	-5.35968428e-08	-3.40425343e-07	0	0;
	45	1	0	0	0	0	1	0.990555788	-0.880246922	230	7	1.1	0.9	-2.74917252e-08	-2.54760195e-07	0	0;
	46	1	4.42836474	1.26424924	0	0	1	0.992027424	-1.40109945	115	7	1.1	0.9	-2.80417703e-08	-2.65135176e-07	0	0;
	47	1	0.962394463	0.274969846	0	0	1	1.0226454	-3.03472168	115	4	1.1	0.9	-8.59012847e-08	-6.22453647e-07	0	0;
	48	1	1.06771084	0.305060241	0	0	1	0.993223186	-2.79367658	115	6	1.1	0.9	-4.57204876e-08	-3.32383857e-07	0	0;
	49	2	0	0	0	0	1	0.99700085	-2.38513108	13.8	6	1.1	0.9	-5.42840246e-08	-3.29817768e-07	0	0;
	50	2	0	0	0	0	1	0.996113943	-2.48344048	13.8	6	1.1	0.9	-5.56262788e-08	-3.30548478e-07	0	0;
	51	2	0	0	0	0	1	0.99750435	-2.321856	13.8	6	1.1	0.9	-5.93215192e-08	-3.32425192e-07	0	0;
	52	2	0	0	0	0	1	0.995954573	-2.50255778	13.8	6	1.1	0.9	-6.1356838e-08	-3.33377023e-07	0	0;
	53	2	0	0	0	0	1	0.999555506	-1.901057	13.8	6	1.1	0.9	-5.36483927e-08	-3.34308586e-07	0	0;
	54	1	1.66231771	0.474947917	0	0	1	1.02108691	-3.20619311	115	4	1.1	0.9	-8.74495362e-08	-6.15928335e-07	0	0;
	55	1	0	0	0	0	1	0.987592299	-0.913554265	230	7	1.1	0.9	-2.40025011e-08	-2.28617448e-07	0	0;
	56	1	0.915009119	0.25843769	0	0	1	0.987441866	-1.12338944	115	7	1.1	0.9	-2.3667604e-08	-2.18207746e-07	0	0;
	57	1	1.76230674	0.499945175	0	0	1	1.00828186	-4.19975638	115	4	1.1	0.9	-8.28244922e-08	-4.98896886e-07	0	0;
	58	1	2.95457143	0.845161094	0	0	1	0.992370476	-3.2734962	115	7	1.1	0.9	-2.77472969e-08	-1.97811435e-07	0	0;
	59	1	2.88464472	0.823312975	0	0	1	0.978551251	-2.39873164	115	2	1.1	0.9	-2.41081047e-09	-7.95326849e-08	0	0;
	60	1	2.31747356	0.65865038	0	0	1	0.982219085	-0.45159249	115	2	1.1	0.9	-4.231592e-09	-1.08995604e-07	0	0;
	61	1	14.353769	4.09309422	0	0	1	0.988329369	-1.46680575	115	7	1.1	0.9	-2.58230403e-08	-2.39564556e-07	0	0;
	62	1	13.3797828	3.81208196	0	0	1	1.00516516	-4.50963414	115	4	1.1	0.9	-8.13063882e-08	-4.60985895e-07	0	0;
	63	1	4.98695313	1.41859444	0	0	1	1.0252991	-3.56772669	115	4	1.1	0.9	-8.91046138e-08	-5.85303466e-07	0	0;
	64	1	0	0	0	0	1	0.994095763	-2.23285819	115	6	1.1	0.9	-4.79975171e-08	-3.81028992e-07	0	0;
	65	2	0	0	0	0	1	0.976625398	-0.365700399	13.8	6	1.1	0.9	-3.02501608e-08	-3.80575134e-07	0	0;
	66	1	0	0	0	0	1	1.02409349	-2.83024695	115	4	1.1	0.9	-8.30999451e-08	-6.24259924e-07	0	0;
	67	2	0	0	0	0	1	1.02513019	-2.72490444	13.8	4	1.1	0.9	-9.61562697e-08	-6.44291952e-07	0	0;
	68	2	0	0	0	0	1	1.02238651	-1.61197309	13.8	4	1.1	0.9	-7.00864187e-08	-6.51771689e-07	0	0;
	69	2	0	0	0	0	1	1.02374817	-2.39346291	13.8	4	1.1	0.9	-8.83877174e-08	-6.33716183e-07	0	0;
	70	2	0	0	0	0	1	1.02303379	-1.91327464	13.8	4	1.1	0.9	-7.79013805e-08	-6.45029548e-07	0	0;
	71	2	0	0	0	0	1	1.0237838	-2.45541735	13.8	4	1.1	0.9	-9.07683798e-08	-6.32108927e-07	0	0;
	72	2	0	0	0	0	1	1.02383832	-2.48724578	13.8	4	1.1	0.9	-9.14712319e-08	-6.31343761e-07	0	0;
	73	2	0	0	0	0	1	1.02351827	-2.15669912	13.8	4	1.1	0.9	-8.59595093e-08	-6.39178465e-07	0	0;
	74	1	11.0056348	3.13860056	0	0	1	0.990390987	-3.2296673	115	6	1.1	0.9	-4.58523796e-08	-3.12155445e-07	0	0;
	75	1	2.19550127	0.628157307	0	0	1	0.97811596	0.196448283	115	2	1.1	0.9	1.00468396e-08	1.75939634e-08	0	0;
	76	2	0	0	0	0	1	0.985075183	0.737367694	13.8	2	1.1	0.9	-5.37896778e-09	5.67604009e-08	0	0;
	77	2	0	0	0	0	1	0.989232287	1.10827089	13.8	2	1.1	0.9	-9.96980807e-08	4.50125978e-08	0	0;
	78	1	0	0	0	0	1	0.97811596	0.196448283	13.8	2	1.1	0.9	1.08944217e-08	3.55898046e-08	0	0;
	79	1	0	0	0	0	1	0.97811596	0.196448283	13.8	2	1.1	0.9	1.11063172e-08	4.51497046e-08	0	0;
	80	1	0.898176235	0.25488785	0	0	1	1.01943663	-4.21396314	115	5	1.1	0.9	-7.37749817e-08	-4.19325036e-07	0	0;
	81	1	0	0	0	0	1	0.996337665	-1.93732944	230	6	1.1	0.9	-3.75826019e-08	-2.75933923e-07	0	0;
	82	1	4.45857275	1.27303985	0	0	1	0.994390624	-2.3636173	115	6	1.1	0.9	-3.74258656e-08	-2.58058555e-07	0	0;
	83	1	2.19322796	0.621647416	0	0	1	0.983450634	-2.09050632	115	7	1.1	0.9	-1.64585433e-08	-1.47541188e-07	0	0;
	84	1	2.28698049	0.652551765	0	0	1	0.97335181	-2.49702866	115	2	1.1	0.9	-1.48396227e-08	-1.22992652e-07	0	0;
	85	1	3.018419	0.862405428	0	0	1	0.997172764	-3.91108789	115	4	1.1	0.9	-5.69719853e-08	-3.49084149e-07	0	0;
	86	1	5.03135707	1.43317444	0	0	1	0.969147799	-1.11563126	115	2	1.1	0.9	1.42041983e-08	-3.83106024e-09	0	0;
	87	1	0	0	0	0	1	1.01190041	-2.99551048	230	3	1.1	0.9	-7.33781061e-08	-4.84163951e-07	0	0;
	88	1	29.8418243	8.50377076	0	0	1	1.01249657	-3.75092294	115	3	1.1	0.9	-8.25294038e-08	-4.84934532e-07	0	0;
	89	1	43.8994833	12.5097812	0	0	1	0.999932209	-3.59622477	115	7	1.1	0.9	-4.62705723e-08	-2.95965275e-07	0	0;
	90	2	0	0	0	0	1	1.01215472	-2.37500548	13.8	7	1.1	0.9	-1.44186593e-07	-4.64300999e-07	0	0;
	91	2	0	0	0	0	1	1.00441315	-3.17703082	13.8	7	1.1	0.9	-5.45403386e-08	-3.09608081e-07	0	0;
	92	1	0	0	0	0	1	0.999932209	-3.59622477	13.8	7	1.1	0.9	-4.62649803e-08	-2.9586166e-07	0	0;
	93	1	1.9122903	0.543690378	0	0	1	1.02717827	-3.33755351	115	4	1.1	0.9	-8.73863655e-08	-5.95170084e-07	0	0;
	94	2	0	0	0	0	1	1.02812129	-2.51647513	13.8	4	1.1	0.9	-8.2967274e-08	-6.30330353e-07	0	0;
	95	1	2.09544073	0.593708207	0	30	1	1.00545282	-3.56258484	115	7	1.1	0.9	-3.84738476e-08	-2.53319777e-07	0	0;
	96	1	2.06750152	0.586723404	0	0	1	1.00273089	-2.63011014	115	7	1.1	0.9	-4.79533197e-08	-3.36447558e-07	0	0;
	97	1	4.47028452	1.27461046	0	0	1	0.986175773	-1.61089539	115	2	1.1	0.9	-1.67583979e-08	-1.75663275e-07	0	0;
	98	1	0	0	0	0	1	0.975205652	0.471106712	230	2	1.1	0.9	3.79677085e-09	-2.37356897e-08	0	0;
	99	1	7.422014	2.11621928	0	0	1	0.973084031	-0.172337119	115	2	1.1	0.9	8.10743264e-09	-1.38742875e-08	0	0;
	100	1	22.6910874	6.4692964	0	80	1	1.02978664	-4.50095439	115	5	1.1	0.9	-8.0529562e-08	-4.51013825e-07	0	0;
	101	1	0.317127961	0.0914792194	0	0	1	0.969853979	-1.0774938	115	2	1.1	0.9	1.31426605e-08	-7.93040872e-09	0	0;
	102	1	0	0	0	0	1	0.986474925	-0.695064809	230	7	1.1	0.9	-2.35285814e-08	-2.25419123e-07	0	0;
	103	1	0	0	0	0	1	0.987365043	-1.15763477	115	7	1.1	0.9	-2.33211483e-08	-2.17327551e-07	0	0;
	104	2	0	0	0	0	1	0.980459657	0.712070292	13.8	7	1.1	0.9	-2.66092041e-08	-2.1698969e-07	0	0;
	105	2	0	0	0	0	1	0.974066117	1.3502508	13.8	7	1.1	0.9	-1.51149253e-08	-2.21678278e-07	0	0;
	106	1	1.4388693	0.412103343	0	0	1	0.985572528	-1.31314147	115	7	1.1	0.9	-1.84094042e-08	-1.84440864e-07	0	0;
	107	1	36.7121216	10.463234	0	0	1	0.971179181	-3.16367767	115	7	1.1	0.9	-2.07774424e-08	-1.58902389e-07	0	0;
	108	1	5.74489498	1.63442872	0	0	1	0.976982996	-0.1800194	115	2	1.1	0.9	1.21043808e-08	1.668743e-08	0	0;
	109	1	3.22464638	0.91864926	0	0	1	0.986246207	-2.31387727	115	4	1.1	0.9	-2.20048074e-08	-1.80466846e-07	0	0;
	110	1	6.62309549	1.88447192	0	0	1	0.96989856	-1.05598951	115	2	1.1	0.9	1.32018696e-08	-6.96363685e-09	0	0;
	111	1	5.35264486	1.52325834	0	0	1	1.01801794	-4.67400495	115	5	1.1	0.9	-8.15439408e-08	-4.51911264e-07	0	0;
	112	1	0	0	0	0	1	0.982477004	-0.873524185	230	7	1.1	0.9	-1.99895367e-08	-1.98562155e-07	0	0;
	113	1	0	0	0	0	1	0.974666724	-2.5826492	115	7	1.1	0.9	-2.16351995e-08	-1.55032665e-07	0	0;
	114	2	0	0	0	0	1	0.983146566	-0.696189562	13.8	7	1.1	0.9	-2.90735903e-08	-1.67314439e-07	0	0;
	115	2	0	0	0	0	1	0.974385358	0.969855291	13.8	7	1.1	0.9	-1.8334117e-08	-1.91743139e-07	0	0;
	116	1	0	0	0	0	1	0.974228386	0.38548883	230	2	1.1	0.9	1.38258228e-09	-4.1357708e-08	0	0;
	117	1	20.7840787	5.9217548	0	0	1	0.972183811	-0.86978443	115	2	1.1	0.9	5.76182324e-09	-3.32173729e-08	0	0;
	118	1	2.40285416	0.683044838	0	0	1	0.974090583	-0.456409244	115	2	1.1	0.9	8.8801804e-09	-1.71336823e-08	0	0;
	119	1	10.7030687	3.04930731	0	0	1	0.974820812	-2.07105963	115	2	1.1	0.9	3.41828885e-09	-5.01216543e-08	0	0;
	120	1	1.12487664	0.318715049	0	0	1	0.994307668	-3.56182426	115	4	1.1	0.9	-4.65768479e-08	-2.99932835e-07	0	0;
	121	1	0	0	0	0	1	1.00088738	-1.22325489	230	7	1.1	0.9	-3.58439936e-08	-3.38154619e-07	0	0;
	122	1	10.784535	3.07331307	0	0	1	0.998080526	-1.85519883	115	7	1.1	0.9	-3.86213782e-08	-3.13001965e-07	0	0;
	123	1	0	0	0	0	1	0.978112929	1.16865057	230	2	1.1	0.9	1.09547844e-09	-3.76732208e-08	0	0;
	124	1	0	0	0	0	1	0.974799909	-0.0519310329	115	2	1.1	0.9	5.82183972e-09	-2.20647487e-08	0	0;
	125	2	0	0	0	0	1	0.990672446	3.55260597	13.8	2	1.1	0.9	-7.69668885e-09	-3.58866226e-08	0	0;
	126	2	0	0	0	0	1	0.985679146	2.69069618	13.8	2	1.1	0.9	-8.91297814e-09	-3.62525279e-08	0	0;
	127	2	0	0	0	0	1	0.981810954	1.90020576	13.8	2	1.1	0.9	-9.92309185e-09	-3.80198765e-08	0	0;
	128	1	0	0	0	0	1	0.983052567	-0.880404075	230	7	1.1	0.9	-2.06802232e-08	-1.98248436e-07	0	0;
	129	1	53.950614	15.3735502	0	0	1	0.973419483	-2.78869948	115	7	1.1	0.9	-2.3060806e-08	-1.74392516e-07	0	0;
	130	1	3.07331307	0.873100304	0	0	1	0.983886688	-1.40869381	115	7	1.1	0.9	-1.41439185e-08	-1.58087682e-07	0	0;
	131	1	18.4483093	5.25700581	0	0	1	0.970216785	-0.960679425	115	2	1.1	0.9	1.27702912e-08	-8.25908286e-09	0	0;
	132	1	16.441865	4.68373603	0	0	1	0.969619614	-2.01650877	115	2	1.1	0.9	1.49536845e-10	-5.88164853e-08	0	0;
	133	1	0	0	0	0	1	0.977622427	1.37250181	230	2	1.1	0.9	-1.57990497e-09	-5.0889236e-08	0	0;
	134	1	0	0	0	0	1	0.979081659	0.5588117	115	2	1.1	0.9	1.61539407e-09	-5.99373198e-08	0	0;
	135	2	0	0	0	0	1	0.971334388	4.08574033	13.8	2	1.1	0.9	-4.66810182e-10	-4.66095245e-08	0	0;
	136	2	0	0	0	0	1	0.972585516	3.59499926	13.8	2	1.1	0.9	-1.27112608e-09	-4.74671149e-08	0	0;
	137	1	0.724920504	0.206227385	0	0	1	1.01423157	-3.87123618	115	4	1.1	0.9	-8.96493587e-08	-5.7022749e-07	0	0;
	138	1	1.22610751	0.351992586	0	0	1	0.991083302	-2.59464599	115	6	1.1	0.9	-2.80686237e-08	-2.13804648e-07	0	0;
	139	1	4.17145241	1.18922985	0	0	1	0.98181059	-2.56951727	115	2	1.1	0.9	-8.58713957e-09	-1.10688349e-07	0	0;
	140	1	5.00696261	1.42707582	0	0	1	0.974099255	-0.174293615	115	2	1.1	0.9	6.70870969e-09	-3.36305529e-08	0	0;
	141	1	0.866003277	0.2500432	0	0	1	0.969895655	-1.04853057	115	2	1.1	0.9	1.37082979e-08	-6.07539853e-09	0	0;
	142	1	22.7234381	6.47672874	0	0	1	0.96879126	-1.04278827	115	2	1.1	0.9	1.35218441e-08	-4.00031759e-09	0	0;
	143	1	16.2521348	4.63046262	0	0	1	1.00657821	-3.83460727	115	5	1.1	0.9	-6.45088757e-08	-3.75305932e-07	0	0;
	144	1	5.51924624	1.57344257	0	0	1	0.977803005	-1.42847687	115	2	1.1	0.9	-1.94637341e-09	-8.21196388e-08	0	0;
	145	1	10.6085447	3.02410055	0	0	1	1.00992824	-4.18971546	115	3	1.1	0.9	-8.85904193e-08	-4.91168642e-07	0	0;
	146	1	0	0	0	0	1	0.982940968	-1.81910963	115	7	1.1	0.9	-1.71086365e-08	-1.46919627e-07	0	0;
	147	2	0	0	0	0	1	0.978245692	0.277561002	13.8	7	1.1	0.9	-2.48746907e-08	-1.35831275e-07	0	0;
	148	1	19.527764	5.56803516	0	0	1	0.966758168	-1.50646492	115	2	1.1	0.9	1.74650333e-08	1.85832768e-09	0	0;
	149	1	0	0	0	0	1	1.01213705	-2.7367598	230	3	1.1	0.9	-7.1196111e-08	-4.83100536e-07	0	0;
	150	1	0	0	0	0	1	1.01401216	-3.44700198	115	3	1.1	0.9	-7.99665101e-08	-4.83379904e-07	0	0;
	151	2	0	0	0	0	1	1.01627437	-2.18014119	13.8	3	1.1	0.9	-9.71230065e-08	-5.35797616e-07	0	0;
	152	2	0	0	0	0	1	1.00440614	-0.878453014	13.8	3	1.1	0.9	-6.05316059e-08	-4.89004975e-07	0	0;
	153	2	0	0	0	0	1	1.00231618	-0.303192906	13.8	3	1.1	0.9	-5.07945537e-08	-4.91179358e-07	0	0;
	154	2	0	0	0	0	1	1.00681169	-1.38789174	13.8	3	1.1	0.9	-6.92379139e-08	-4.86845747e-07	0	0;
	155	2	0	0	0	0	1	1.00700016	-1.42859997	13.8	3	1.1	0.9	-6.99324559e-08	-4.86645597e-07	0	0;
	156	1	0	0	0	0	1	0.977892634	1.18661138	230	2	1.1	0.9	7.86304029e-10	-3.94215368e-08	0	0;
	157	1	9.00155519	2.56751676	0	0	1	0.977752378	0.689467685	115	2	1.1	0.9	2.57015952e-09	-1.66576071e-08	0	0;
	158	1	5.60563528	1.59982456	0	0	1	1.02514549	-3.05622353	115	4	1.1	0.9	-8.56000292e-08	-6.18080442e-07	0	0;
	159	1	0.868654742	0.249972588	0	0	1	1.00494463	-4.31118709	115	4	1.1	0.9	-7.76413895e-08	-4.56212163e-07	0	0;
	160	1	0	0	0	0	1	1.00791572	-4.29805212	115	4	1.1	0.9	-7.99377611e-08	-4.62740979e-07	0	0;
	161	1	0	0	0	0	1	1.00791572	-4.29805212	13.8	4	1.1	0.9	-7.99841357e-08	-4.65419627e-07	0	0;
	162	1	0.884299121	0.2500432	0	0	1	0.976311736	-1.27375728	115	2	1.1	0.9	6.96726542e-10	-6.29280048e-08	0	0;
	163	1	27.7949132	7.91972964	0	0	1	1.01859395	-4.57165533	115	5	1.1	0.9	-8.00478145e-08	-4.50417384e-07	0	0;
	164	1	0	0	0	0	1	1.01859395	-4.57165533	13.8	5	1.1	0.9	-8.07029118e-08	-4.59438042e-07	0	0;
	165	1	0	0	0	0	1	1.01859395	-4.57165533	13.8	5	1.1	0.9	-8.06384956e-08	-4.74496181e-07	0	0;
	166	1	0	0	0	0	1	1.01859395	-4.57165533	13.8	5	1.1	0.9	-8.13543373e-08	-4.80915288e-07	0	0;
	167	2	0	0	0	0	1	1.02080947	-4.27213015	13.8	5	1.1	0.9	-8.95963561e-08	-4.71158023e-07	0	0;
	168	1	0	0	0	0	1	1.01859395	-4.57165533	13.8	5	1.1	0.9	-8.14846064e-08	-4.89608518e-07	0	0;
	169	1	0	0	0	0	1	1.01859395	-4.57165533	13.8	5	1.1	0.9	-8.13543373e-08	-4.82060092e-07	0	0;
	170	2	0	0	0	0	1	1.0225818	-3.99890155	13.8	5	1.1	0.9	-9.09495579e-08	-4.90472168e-07	0	0;
	171	1	4.65803522	1.32583874	0	0	1	0.990866043	-3.08250144	115	6	1.1	0.9	-4.0020905e-08	-2.70107616e-07	0	0;
	172	1	3.26499199	0.928520027	0	0	1	1.01533767	-4.10078284	115	5	1.1	0.9	-7.8167783e-08	-4.61308361e-07	0	0;
	173	1	5.28588852	1.50505207	0	0	1	1.01834602	-4.55101801	115	5	1.1	0.9	-8.05863113e-08	-4.42328466e-07	0	0;
	174	1	1.68104606	0.479431909	0	0	1	1.01991721	-4.03069709	115	5	1.1	0.9	-7.23491195e-08	-4.20241915e-07	0	0;
	175	1	4.43626235	1.26230174	0	0	1	1.01792754	-4.67982979	115	5	1.1	0.9	-8.21493013e-08	-4.49535112e-07	0	0;
	176	1	11.4976303	3.278125	0	0	1	1.01097876	-3.98884953	115	3	1.1	0.9	-8.457659e-08	-4.87777511e-07	0	0;
	177	1	7.88584195	2.24910638	0	0	1	0.982155995	-2.85729315	115	7	1.1	0.9	-2.0478934e-08	-1.58690162e-07	0	0;
	178	1	0	0	0	0	1	1.00664045	-2.66507531	230	5	1.1	0.9	-5.64576623e-08	-3.50480666e-07	0	0;
	179	1	14.3283385	4.08427437	0	0	1	1.01739985	-3.91216295	115	5	1.1	0.9	-6.81363849e-08	-4.15075272e-07	0	0;
	180	1	4.69721896	1.34119559	0	0	1	1.01764674	-4.20307537	115	5	1.1	0.9	-7.97875626e-08	-4.66304489e-07	0	0;
	181	1	29.9842119	8.54281319	0	0	1	1.00924449	-4.18020753	115	4	1.1	0.9	-7.94673438e-08	-4.61948129e-07	0	0;
	182	2	0	0	0	0	1	1.01160185	-3.30691714	13.8	4	1.1	0.9	-7.78399819e-08	-4.76421759e-07	0	0;
	183	2	0	0	0	0	1	1.00963764	-3.66769008	13.8	4	1.1	0.9	-8.74773202e-08	-4.66656603e-07	0	0;
	184	1	6.48750267	1.8509713	0	0	1	1.02732853	-4.27585888	115	5	1.1	0.9	-8.83336547e-08	-5.16012717e-07	0	0;
	185	1	6.52600899	1.85679774	0	0	1	1.01117361	-4.00405131	115	3	1.1	0.9	-8.72576523e-08	-4.90373664e-07	0	0;
	186	1	1.28070907	0.365916878	0	0	1	0.983439636	-1.57300075	115	2	1.1	0.9	-1.42066255e-08	-1.37609514e-07	0	0;
	187	1	0	0	0	0	1	0.997814618	-0.777021861	230	7	1.1	0.9	-3.38907467e-08	-3.19682152e-07	0	0;
	188	1	0	0	0	0	1	1.00366806	-2.44376626	115	7	1.1	0.9	-4.65147445e-08	-3.29790901e-07	0	0;
	189	3	0	0	0	0	1	0.99507551	4.72456326e-23	13.8	7	1.1	0.9	-2.80339311e-08	-3.21002102e-07	0	0;
	190	1	9.84992586	2.8042076	0	0	1	0.989584318	-3.33909245	115	6	1.1	0.9	-4.39589726e-08	-2.91180033e-07	0	0;
	191	1	4.38771228	1.25016422	0	0	1	1.02379142	-3.91699897	115	5	1.1	0.9	-8.90718499e-08	-5.48650917e-07	0	0;
	192	1	36.837848	10.4981581	0	0	1	0.971594842	-3.2108292	115	7	1.1	0.9	-1.96991049e-08	-1.53599451e-07	0	0;
	193	1	13.4108536	3.82383137	0	0	1	0.970574909	-0.931856395	115	2	1.1	0.9	1.2044858e-08	-8.747379e-09	0	0;
	194	1	22.7230916	6.47762339	0	50	1	1.0157159	-3.9003604	115	3	1.1	0.9	-8.13819045e-08	-4.81047829e-07	0	0;
	195	1	0	0	0	0	1	0.993086071	-2.55540689	115	6	1.1	0.9	-3.45297253e-08	-2.47325783e-07	0	0;
	196	1	0	0	0	0	1	0.993086071	-2.55540689	13.8	6	1.1	0.9	-3.44455598e-08	-2.45552756e-07	0	0;
	197	1	0	0	0	0	1	0.993086071	-2.55540689	13.8	6	1.1	0.9	-3.44455598e-08	-2.41670926e-07	0	0;
	198	1	3.27495606	0.933088038	0	0	1	0.9751749	-0.471770322	115	2	1.1	0.9	1.07349981e-08	-2.26445485e-09	0	0;
	199	1	2.49914736	0.709851715	0	0	1	1.01052648	-3.64584226	115	6	1.1	0.9	-6.95212988e-08	-4.42429549e-07	0	0;
	200	1	5.83685992	1.66231771	0	0	1	0.991174789	-2.61942204	115	4	1.1	0.9	-3.3215662e-08	-2.50530323e-07	0	0;
];

%% generator data
%	bus	Pg	Qg	Qmax	Qmin	Vg	mBase	status	Pmax	Pmin	Pc1	Pc2	Qc1min	Qc1max	Qc2min	Qc2max	ramp_agc	ramp_10	ramp_30	ramp_q	apf	pgs
mpc.gen = [
	49	1.35999911	0.643260728	2.11	-0.55	0.99700085	5.44	1	4.53	1.36	0	0	0	0	0	0	3	30	90	0	0.00151126442	1.36;
	50	1.35999911	0.642964148	2.11	-0.55	0.996113943	5.44	1	4.53	1.36	0	0	0	0	0	0	3	30	90	0	0.00151126442	1.36;
	51	1.35999911	0.642202589	2.11	-0.55	0.99750435	5.44	1	4.53	1.36	0	0	0	0	0	0	3	30	90	0	0.00151126442	1.36;
	52	1.35999911	0.641816462	2.11	-0.55	0.995954573	5.44	1	4.53	1.36	0	0	0	0	0	0	3	30	90	0	0.00151126442	1.36;
	53	2.71999911	1.01865931	4.23	-1.11	0.999555506	10.88	1	9.07	2.72	0	0	0	0	0	0	3	30	90	0	0.00302586497	2.72;
	65	30.9336389	-16.6805957	32.04	-21.66	0.976625398	180.48	1	86.5	0	0	0	0	0	0	0	45	450	1350	0	0.0288574774	86.5;
	67	1.40999911	0.531211311	2.19	-0.57	1.02513019	5.64	1	4.7	1.41	0	0	0	0	0	0	3	30	90	0	0.00156797854	1.41;
	68	8.37999911	-0.787141794	13.01	-3.41	1.02238651	33.5	1	27.92	8.38	0	0	0	0	0	0	3	30	90	0	0.00931445976	8.38;
	69	8.37999911	-0.729145492	13.01	-3.41	1.02374817	33.5	1	27.92	8.38	0	0	0	0	0	0	3	30	90	0	0.00931445976	8.38;
	70	8.37999911	-0.765768686	13.01	-3.41	1.02303379	33.5	1	27.92	8.38	0	0	0	0	0	0	3	30	90	0	0.00931445976	8.38;
	71	8.37999911	-0.723863702	13.01	-3.41	1.0237838	33.5	1	27.92	8.38	0	0	0	0	0	0	3	30	90	0	0.00931445976	8.38;
	72	8.37999911	-0.721342205	13.01	-3.41	1.02383832	33.5	1	27.92	8.38	0	0	0	0	0	0	3	30	90	0	0.00931445976	8.38;
	73	8.37999911	-0.746948176	13.01	-3.41	1.02351827	33.5	1	27.92	8.38	0	0	0	0	0	0	3	30	90	0	0.00931445976	8.38;
	76	1.19999909	0.820668016	2.04	-0.44	0.985075183	4.8	1	4	1.2	0	0	0	0	0	0	35	350	1050	0	0.00133444982	1.2;
	77	0.719999091	0.480917663	1.22	-0.27	0.989232287	2.88	1	2.4	0.72	0	0	0	0	0	0	35	350	1050	0	0.000800669894	0.72;
	78	0	0	9.16	-2	0.97811596	21.6	0	18	5.4	0	0	0	0	0	0	35	350	1050	0	0	11.7;
	79	0	0	9.16	-2	0.97811596	21.6	0	18	5.4	0	0	0	0	0	0	35	350	1050	0	0	11.7;
	90	0.959999091	0.527386569	1.63	-0.36	1.01215472	3.84	1	3.2	0.96	0	0	0	0	0	0	35	350	1050	0	0.00106755986	0.96;
	91	1.49999909	0.826019822	2.55	-0.55	1.00441315	6	1	5	1.5	0	0	0	0	0	0	35	350	1050	0	0.00166806228	1.5;
	92	0	0	3.21	-0.7	0.999932209	7.56	0	6.3	1.89	0	0	0	0	0	0	35	350	1050	0	0	4.095;
	94	5.39999911	0.178635812	8.39	-2.2	1.02812129	21.6	1	18	5.4	0	0	0	0	0	0	3	30	90	0	0.0060050242	5.4;
	104	26.8988854	-7.0324857	21.09	-14.26	0.980459657	118.8	1	67.6	0	0	0	0	0	0	0	45	450	1350	0	0.022552202	67.6;
	105	57.3852333	-20.2485126	42.17	-28.51	0.974066117	237.6	1	154.8	0	0	0	0	0	0	0	45	450	1350	0	0.0516432082	154.8;
	114	0.696625408	0.0564334582	0.36	-0.24	0.983146566	2.04	1	1.4	0	0	0	0	0	0	0	45	450	1350	0	0.000467057438	1.4;
	115	48.7978369	-12.7663696	31.95	-21.6	0.974385358	180	1	133.5	0	0	0	0	0	0	0	45	450	1350	0	0.0445372628	133.5;
	125	39.0199991	11.0297385	60.6	-15.87	0.990672446	156.06	1	130.05	39.02	0	0	0	0	0	0	3	30	90	0	0.0433862999	39.02;
	126	39.0199991	10.933063	60.6	-15.87	0.985679146	156.06	1	130.05	39.02	0	0	0	0	0	0	3	30	90	0	0.0433862999	39.02;
	127	39.0199991	10.4724925	60.6	-15.87	0.981810954	156.06	1	130.05	39.02	0	0	0	0	0	0	3	30	90	0	0.0433862999	39.02;
	135	133.919999	-16.7674594	208.02	-54.46	0.971334388	535.68	1	446.4	133.92	0	0	0	0	0	0	3	30	90	0	0.1489246	133.92;
	136	133.919999	-17.3209208	208.02	-54.46	0.972585516	535.68	1	446.4	133.92	0	0	0	0	0	0	3	30	90	0	0.1489246	133.92;
	147	34.4377618	-4.72481644	21.41	-14.47	0.978245692	120.6	1	92.4	0	0	0	0	0	0	0	45	450	1350	0	0.0308257909	92.4;
	151	1.61999911	0.62123278	2.52	-0.66	1.01627437	6.48	1	5.4	1.62	0	0	0	0	0	0	3	30	90	0	0.00180150726	1.62;
	152	23.1699991	-5.51021025	35.99	-9.42	1.00440614	92.67	1	77.22	23.17	0	0	0	0	0	0	3	30	90	0	0.0257615538	23.17;
	153	23.1699991	-5.52575746	35.99	-9.42	1.00231618	92.67	1	77.22	23.17	0	0	0	0	0	0	3	30	90	0	0.0257615538	23.17;
	154	23.1699991	-5.49464926	35.99	-9.42	1.00681169	92.67	1	77.22	23.17	0	0	0	0	0	0	3	30	90	0	0.0257615538	23.17;
	155	23.1699991	-5.49320062	35.99	-9.42	1.00700016	92.67	1	77.22	23.17	0	0	0	0	0	0	3	30	90	0	0.0257615538	23.17;
	161	0	0	70.55	-15.38	1.00791572	166.32	0	138.6	41.58	0	0	0	0	0	0	35	350	1050	0	0	90.09;
	164	0	0	6.11	-1.33	1.01859395	14.4	0	12	3.6	0	0	0	0	0	0	35	350	1050	0	0	7.8;
	165	0	0	13.23	-2.89	1.01859395	31.2	0	26	7.8	0	0	0	0	0	0	35	350	1050	0	0	16.9;
	166	0	0	4.78	-1.04	1.01859395	11.28	0	9.4	2.82	0	0	0	0	0	0	35	350	1050	0	0	6.11;
	167	2.81999909	1.00784809	4.78	-1.04	1.02080947	11.28	1	9.4	2.82	0	0	0	0	0	0	35	350	1050	0	0.00313595708	2.82;
	168	0	0	4.78	-1.04	1.01859395	11.28	0	9.4	2.82	0	0	0	0	0	0	35	350	1050	0	0	6.11;
	169	0	0	4.78	-1.04	1.01859395	11.28	0	9.4	2.82	0	0	0	0	0	0	35	350	1050	0	0	6.11;
	170	2.81999909	0.978487997	4.78	-1.04	1.0225818	11.28	1	9.4	2.82	0	0	0	0	0	0	35	350	1050	0	0.00313595708	2.82;
	182	5.24999911	0.646969725	8.16	-2.14	1.01160185	21	1	17.5	5.25	0	0	0	0	0	0	3	30	90	0	0.00583821798	5.25;
	183	7.97999911	0.0599319967	12.4	-3.25	1.00963764	31.92	1	26.6	7.98	0	0	0	0	0	0	3	30	90	0	0.00887409132	7.98;
	189	170.749999	-40.2631578	209.45	-46.67	0.99507551	682.98	1	569.15	170.75	0	0	0	0	0	0	20	200	600	0	0.189875529	384.37;
	196	0	0	34.36	-7.49	0.993086071	81	0	67.5	20.25	0	0	0	0	0	0	35	350	1050	0	0	43.875;
	197	0	0	34.36	-7.49	0.993086071	81	0	67.5	20.25	0	0	0	0	0	0	35	350	1050	0	0	43.875;
];

%% branch data
%	fbus	tbus	r	x	b	rateA	rateB	rateC	ratio	angle	status	angmin	angmax	Pf	Qf	Pt	Qt
mpc.branch = [
	1	2	0.000673	0.003339	0	100	0	0	1	0	1	0	0	4.5070	1.2815	-4.5069	-1.2807;
	1	119	0.018542	0.119758	0.02285	221.1	0	0	1	0	1	0	0	17.3685	-5.3915	-17.3058	3.6306;
	1	124	0.005615	0.036268	0.00692	221.1	0	0	1	0	1	0	0	-32.6710	-1.0436	32.7344	0.7970;
	1	193	0.004258	0.027501	0.00525	221.1	0	0	1	0	1	0	0	10.7954	5.1536	-10.7889	-5.6069;
	3	4	0.000573	0.003303	0	100	0	0	1	0	1	0	0	1.0624	0.3000	-1.0624	-0.3000;
	3	57	0.008505	0.058098	0.00988	221.1	0	0	1	0	1	0	0	6.4633	4.9550	-6.4574	-5.9225;
	3	137	0.005889	0.038035	0.00726	221.1	0	0	1	0	1	0	0	-7.5257	-5.2550	7.5304	4.5398;
	5	6	0.000694	0.003337	0	100	0	0	1	0	1	0	0	4.6641	1.3266	-4.6639	-1.3258;
	5	48	0.006246	0.043513	0.00711	221.1	0	0	1	0	1	0	0	7.1426	-1.1826	-7.1393	0.5040;
	5	64	0.007877	0.054875	0.00897	221.1	0	0	1	0	1	0	0	-11.8067	-0.1440	11.8178	-0.6641;
	7	8	0.000634	0.003189	0	100	0	0	1	0	1	0	0	14.4796	4.1365	-14.4781	-4.1288;
	7	86	0.003756	0.024259	0.00463	221.1	0	0	1	0	1	0	0	-9.3555	-1.4576	9.3591	1.0461;
	7	101	0.003597	0.023232	0.00443	221.1	0	0	1	0	1	0	0	-12.8481	-3.9629	12.8549	3.5912;
	7	148	0.008667	0.05598	0.01068	221.1	0	0	1	0	1	0	0	7.7239	1.2840	-7.7181	-2.2465;
	9	10	0.000585	0.003967	0	100	0	0	1	0	1	0	0	26.0334	7.4468	-26.0289	-7.4159;
	9	124	0.008069	0.055123	0.00938	221.1	0	0	1	0	1	0	0	-27.8955	-4.4817	27.9637	4.0601;
	9	131	0.004139	0.026732	0.0051	221.1	0	0	1	0	1	0	0	-0.2802	-0.7651	0.2802	0.2852;
	9	141	0.004446	0.03097	0.00506	221.1	0	0	1	0	1	0	0	4.4688	-0.3611	-4.4679	-0.1084;
	9	193	0.003695	0.025244	0.00429	221.1	0	0	1	0	1	0	0	-2.3265	-1.8389	2.3268	1.4372;
	11	12	0.000534	0.003533	0	100	0	0	1	0	1	0	0	0.1875	0.0562	-0.1875	-0.0562;
	11	13	0.000619	0.003606	0	100	0	0	1	0	1	0	0	1.5748	0.4500	-1.5748	-0.4500;
	11	15	0.010408	0.06722	0.01282	221.1	0	0	1	0	1	0	0	-3.3524	3.5051	3.3553	-4.8303;
	11	93	0.018394	0.128141	0.02095	221.1	0	0	1	0	1	0	0	3.0572	-3.3295	-3.0547	1.1414;
	11	158	0.008519	0.058199	0.0099	221.1	0	0	1	0	1	0	0	-1.4671	-0.6819	1.4673	-0.3571;
	14	15	0.000637	0.027526	0	300	0	0	1	0	1	0	0	31.3425	-27.7298	-31.3317	28.1976;
	14	121	0.007013	0.050098	0.09134	402.36	0	0	1	0	1	0	0	-39.2093	30.2151	39.3969	-38.1568;
	14	149	0.009133	0.065244	0.11895	402.36	0	0	1	0	1	0	0	7.8668	-2.4853	-7.8601	-9.6892;
	15	16	0.000553	0.0032	0	100	0	0	1	0	1	0	0	27.9764	8.0000	-27.9719	-7.9741;
	17	18	0.000503	0.003926	0	100	0	0	1	0	1	0	0	0.4437	0.1250	-0.4437	-0.1250;
	17	19	0.000514	0.003079	0	100	0	0	1	0	1	0	0	0.4812	0.1375	-0.4812	-0.1375;
	17	20	0.000623	0.003339	0	100	0	0	1	0	1	0	0	0.7062	0.2000	-0.7062	-0.2000;
	17	21	0.00062	0.00394	0	100	0	0	1	0	1	0	0	2.8810	0.8190	-2.8809	-0.8187;
	17	109	0.009789	0.068198	0.01115	221.1	0	0	1	0	1	0	0	-16.5445	7.2181	16.5778	-8.0742;
	17	120	0.010316	0.070473	0.01199	221.1	0	0	1	0	1	0	0	12.0324	-8.4996	-12.0106	7.4686;
	22	23	0.000616	0.003222	0	100	0	0	1	0	1	0	0	0.8812	0.2500	-0.8812	-0.2500;
	22	24	0.000687	0.003067	0	100	0	0	1	0	1	0	0	1.4999	0.4250	-1.4998	-0.4250;
	22	27	0.011379	0.073494	0.01402	221.1	0	0	1	0	1	0	0	0.4600	-1.9411	-0.4598	0.4637;
	22	158	0.012701	0.086769	0.01476	221.1	0	0	1	0	1	0	0	-2.8410	1.2660	2.8425	-2.8092;
	25	26	0.00061	0.003071	0	100	0	0	1	0	1	0	0	0.7920	0.2288	-0.7920	-0.2288;
	25	64	0.007643	0.053244	0.0087	221.1	0	0	1	0	1	0	0	-19.0489	16.8158	19.0993	-17.3318;
	25	199	0.009909	0.064003	0.01221	221.1	0	0	1	0	1	0	0	18.2570	-17.0446	-18.1974	16.1934;
	27	28	0.000587	0.003964	0	100	0	0	1	0	1	0	0	1.4561	0.4188	-1.4561	-0.4187;
	27	93	0.025172	0.175362	0.02867	221.1	0	0	1	0	1	0	0	1.1154	-1.5843	-1.1151	-1.4391;
	27	158	0.020429	0.131945	0.02517	221.1	0	0	1	0	1	0	0	-2.1117	0.7017	2.1134	-3.3418;
	29	30	0.000694	0.003131	0	100	0	0	1	0	1	0	0	36.0471	10.3168	-36.0367	-10.2701;
	29	124	0.005561	0.038742	0.00633	221.1	0	0	1	0	1	0	0	-23.3674	-6.3177	23.4018	5.9578;
	29	140	0.007895	0.055004	0.00899	221.1	0	0	1	0	1	0	0	-12.6796	-3.9991	12.6942	3.2500;
	31	32	0.000667	0.003884	0	100	0	0	1	0	1	0	0	0.3562	0.1048	-0.3562	-0.1048;
	31	33	0.000528	0.003639	0	100	0	0	1	0	1	0	0	4.4983	1.2860	-4.4982	-1.2852;
	31	177	0.008406	0.05856	0.00957	221.1	0	0	1	0	1	0	0	-8.7199	-8.8262	8.7328	7.9982;
	31	192	0.008088	0.05525	0.0094	221.1	0	0	1	0	1	0	0	3.8654	7.4354	-3.8588	-8.2824;
	34	35	0.000575	0.003674	0	100	0	0	1	0	1	0	0	12.9746	3.7061	-12.9736	-3.6996;
	34	54	0.006268	0.042819	0.00729	221.1	0	0	1	0	1	0	0	-21.2357	-7.6111	21.2662	7.0628;
	34	137	0.006911	0.044639	0.00852	221.1	0	0	1	0	1	0	0	8.2611	3.9051	-8.2553	-4.7460;
	36	37	0.000552	0.003328	0	100	0	0	1	0	1	0	0	2.4936	0.7127	-2.4936	-0.7124;
	36	38	0.00067	0.003511	0	100	0	0	1	0	1	0	0	20.8249	5.9541	-20.8217	-5.9371;
	36	58	0.010889	0.07439	0.01266	221.1	0	0	1	0	1	0	0	1.9154	-11.4132	-1.9019	10.2687;
	36	83	0.009615	0.066986	0.01095	221.1	0	0	1	0	1	0	0	-25.2339	4.7464	25.2999	-5.3471;
	39	40	0.000505	0.003103	0	100	0	0	1	0	1	0	0	1.2749	0.3625	-1.2749	-0.3625;
	39	85	0.008702	0.060625	0.00991	221.1	0	0	1	0	1	0	0	-7.8437	6.8673	7.8537	-7.7864;
	39	159	0.007332	0.05108	0.00835	221.1	0	0	1	0	1	0	0	1.9380	-8.5484	-1.9329	7.7441;
	41	100	0.004595	0.029676	0.00566	221.1	0	0	1	0	1	0	0	-11.0076	-27.4088	11.0453	27.0570;
	41	163	0.003165	0.021623	0.00368	221.1	0	0	1	0	1	0	0	-1.3294	13.3155	1.3350	-13.6602;
	41	180	0.009408	0.060766	0.01159	221.1	0	0	1	0	1	0	0	-10.9307	7.4601	10.9473	-8.5574;
	42	44	0.012256	0.085383	0.01396	221.1	0	0	1	0	1	0	0	-10.3413	7.8201	10.3631	-9.0681;
	42	181	0.008008	0.05579	0.00912	221.1	0	0	1	0	1	0	0	3.7045	-9.7137	-3.6966	8.8441;
	43	84	0.007509	0.051295	0.00873	221.1	0	0	1	0	1	0	0	4.9409	-3.7227	-4.9381	2.9160;
	43	132	0.011052	0.075503	0.01285	221.1	0	0	1	0	1	0	0	-6.2155	3.3629	6.2219	-4.5305;
	44	200	0.014813	0.101195	0.01722	221.1	0	0	1	0	1	0	0	-12.9565	8.3307	12.9940	-9.7788;
	45	46	0.000936	0.049195	0	160	0	0	1	0	1	0	0	18.0966	-3.2250	-18.0934	3.3944;
	45	55	0.002593	0.018527	0.03378	402.36	0	0	1	0	1	0	0	5.1856	13.4623	-5.1789	-16.7187;
	45	102	0.0029	0.020715	0.03777	402.36	0	0	1	0	1	0	0	-12.2702	19.4034	12.2880	-22.9670;
	45	187	0.003474	0.024821	0.04525	402.36	0	0	1	0	1	0	0	-11.0120	-29.6408	11.0430	25.3890;
	46	61	0.006971	0.048561	0.00794	221.1	0	0	1	0	1	0	0	3.3314	6.6870	-3.3271	-7.4353;
	46	122	0.010129	0.065419	0.01248	221.1	0	0	1	0	1	0	0	10.3337	-11.3456	-10.3108	10.2574;
	47	54	0.006678	0.045623	0.00776	221.1	0	0	1	0	1	0	0	7.2081	2.0428	-7.2044	-2.8278;
	47	66	0.007339	0.047401	0.00904	221.1	0	0	1	0	1	0	0	-8.1705	-2.3178	8.1754	1.4028;
	48	49	0.027149	0.532021	0	28.9	0	0	1	0	1	0	0	-1.3594	-0.6311	1.3600	0.6433;
	48	50	0.021719	0.404167	0	28.7	0	0	1	0	1	0	0	-1.3595	-0.6337	1.3600	0.6430;
	48	51	0.027149	0.612711	0	24.3	0	0	1	0	1	0	0	-1.3594	-0.6283	1.3600	0.6422;
	48	52	0.021719	0.379817	0	24.3	0	0	1	0	1	0	0	-1.3595	-0.6332	1.3600	0.6418;
	48	53	0.02121	0.576549	0	35.3	0	0	1	0	1	0	0	-2.7182	-0.9700	2.7200	1.0187;
	48	74	0.007959	0.054369	0.00925	221.1	0	0	1	0	1	0	0	14.2276	2.6873	-14.2105	-3.4802;
	54	66	0.007051	0.045544	0.00869	221.1	0	0	1	0	1	0	0	-15.7241	-4.7099	15.7421	3.9171;
	55	56	0.005152	0.124653	0	160	0	0	1	0	1	0	0	2.8654	0.0060	-2.8649	0.0045;
	55	81	0.005467	0.039054	0.0712	402.36	0	0	1	0	1	0	0	41.1708	-30.9485	-41.0335	24.9233;
	55	102	0.001246	0.008902	0.01623	402.36	0	0	1	0	1	0	0	-39.2188	17.1737	39.2425	-18.5850;
	55	112	0.004166	0.029763	0.05426	402.36	0	0	1	0	1	0	0	0.0964	14.3147	-0.0841	-19.4918;
	55	128	0.003415	0.024395	0.04448	402.36	0	0	1	0	1	0	0	0.2651	16.1728	-0.2533	-20.4070;
	56	103	0.004282	0.02983	0.00488	221.1	0	0	1	0	1	0	0	1.9499	-0.2629	-1.9497	-0.2117;
	57	159	0.00752	0.051369	0.00874	221.1	0	0	1	0	1	0	0	4.6951	5.4225	-4.6909	-6.2796;
	58	95	0.009836	0.063526	0.01212	221.1	0	0	1	0	1	0	0	4.6521	-21.7337	-4.6053	20.8264;
	58	177	0.014049	0.095972	0.01633	221.1	0	0	1	0	1	0	0	-5.7048	10.6198	5.7281	-12.0526;
	59	119	0.011209	0.072397	0.01381	221.1	0	0	1	0	1	0	0	-6.5933	5.4234	6.6027	-6.6799;
	59	139	0.009665	0.062426	0.01191	221.1	0	0	1	0	1	0	0	3.7086	-6.2467	-3.7040	5.1324;
	60	97	0.012274	0.079279	0.01512	221.1	0	0	1	0	1	0	0	23.4380	-9.0100	-23.3594	8.0532;
	60	134	0.009007	0.062749	0.01026	221.1	0	0	1	0	1	0	0	-25.7555	8.3514	25.8247	-8.8557;
	61	103	0.006539	0.045556	0.00745	221.1	0	0	1	0	1	0	0	-11.0267	3.3422	11.0358	-4.0061;
	62	159	0.008634	0.058979	0.01003	221.1	0	0	1	0	1	0	0	-5.7522	0.7215	5.7552	-1.7145;
	62	160	0.007628	0.053144	0.00869	221.1	0	0	1	0	1	0	0	-7.6276	-4.5336	7.6332	3.6926;
	63	66	0.011949	0.083244	0.01361	221.1	0	0	1	0	1	0	0	-15.6837	3.1253	15.7134	-4.3479;
	63	184	0.017963	0.116023	0.02214	221.1	0	0	1	0	1	0	0	10.6968	-4.5439	-10.6753	2.3507;
	64	65	0.00128	0.10157	0	195.5	0	0	1	0	1	0	0	-30.9171	17.9959	30.9336	-16.6806;
	66	67	0.020951	0.144786	0	30	0	0	1	0	1	0	0	-1.4095	-0.5281	1.4100	0.5312;
	66	68	0.00689	0.264997	0	73	0	0	1	0	1	0	0	-8.3753	0.9667	8.3800	-0.7871;
	66	69	0.00441	0.09499	0	70.5	0	0	1	0	1	0	0	-8.3770	0.7933	8.3800	-0.7291;
	66	70	0.00689	0.199449	0	70.5	0	0	1	0	1	0	0	-8.3753	0.9007	8.3800	-0.7658;
	66	71	0.003528	0.081544	0	68	0	0	1	0	1	0	0	-8.3776	0.7789	8.3800	-0.7239;
	66	72	0.003528	0.074599	0	68	0	0	1	0	1	0	0	-8.3776	0.7717	8.3800	-0.7213;
	66	73	0.00689	0.146423	0	65	0	0	1	0	1	0	0	-8.3753	0.8459	8.3800	-0.7469;
	66	158	0.004993	0.032251	0.00615	221.1	0	0	1	0	1	0	0	12.0370	-5.5012	-12.0288	4.9083;
	74	190	0.008894	0.06076	0.01034	221.1	0	0	1	0	1	0	0	3.2048	0.3416	-3.2038	-1.3482;
	75	76	0.038464	0.784328	0	24.3	0	0	1	0	1	0	0	-1.1992	-0.8036	1.2000	0.8207;
	75	77	0.08013	2.192105	0	7.4	0	0	1	0	1	0	0	-0.7194	-0.4641	0.7200	0.4809;
	75	78	0.008544	0.181406	0	65	0	0	1	0	1	0	0	0.0000	0.0000	0.0000	0.0000;
	75	79	0.01068	0.277774	0	62.1	0	0	1	0	1	0	0	0.0000	0.0000	0.0000	0.0000;
	75	108	0.010988	0.070969	0.01354	221.1	0	0	1	0	1	0	0	8.8807	-0.4321	-8.8716	-0.8032;
	75	157	0.013487	0.087112	0.01662	221.1	0	0	1	0	1	0	0	-9.1576	1.0717	9.1699	-2.5816;
	80	100	0.021463	0.149525	0.02444	221.1	0	0	1	0	1	0	0	2.4545	-8.6699	-2.4420	6.1915;
	80	143	0.020594	0.14347	0.02345	221.1	0	0	1	0	1	0	0	-3.3527	8.4151	3.3733	-10.6779;
	81	82	0.00097	0.042371	0	250	0	0	1	0	1	0	0	17.4940	4.2426	-17.4908	-4.1043;
	81	178	0.006598	0.047137	0.08594	402.36	0	0	1	0	1	0	0	23.5395	-29.1659	-23.4615	21.1036;
	82	195	0.003845	0.026265	0.00447	221.1	0	0	1	0	1	0	0	13.0323	2.8313	-13.0253	-3.2251;
	83	146	0.005382	0.036767	0.00626	221.1	0	0	1	0	1	0	0	-11.9930	2.8456	12.0015	-3.3923;
	83	186	0.00792	0.055174	0.00902	221.1	0	0	1	0	1	0	0	-15.5001	1.8799	15.5203	-2.6122;
	84	113	0.006652	0.04544	0.00773	221.1	0	0	1	0	1	0	0	2.6511	-3.5686	-2.6499	2.8435;
	85	120	0.007786	0.050291	0.00959	221.1	0	0	1	0	1	0	0	-10.8721	6.9240	10.8857	-7.7873;
	86	101	0.00512	0.033072	0.00631	221.1	0	0	1	0	1	0	0	-2.1603	-2.0307	2.1607	1.4403;
	86	142	0.003387	0.023141	0.00394	221.1	0	0	1	0	1	0	0	-4.8356	2.0192	4.8367	-2.3822;
	86	193	0.006606	0.042664	0.00814	221.1	0	0	1	0	1	0	0	-7.3946	-2.4678	7.3987	1.7289;
	87	88	0.000832	0.034189	0	350	0	0	1	0	1	0	0	39.4488	-2.4640	-39.4361	2.9857;
	87	149	0.001621	0.011579	0.02111	402.36	0	0	1	0	1	0	0	-39.4488	2.4640	39.4737	-4.4487;
	88	150	0.00557	0.035973	0.00686	221.1	0	0	1	0	1	0	0	-15.4235	-2.1891	15.4366	1.5695;
	88	176	0.003859	0.024922	0.00475	221.1	0	0	1	0	1	0	0	17.5942	3.2339	-17.5821	-3.6420;
	88	194	0.004258	0.029088	0.00495	221.1	0	0	1	0	1	0	0	7.4236	-12.5342	-7.4150	12.0836;
	89	90	0.0601	2.279922	0	8.6	0	0	1	0	1	0	0	-0.9593	-0.5007	0.9600	0.5274;
	89	91	0.024614	0.503424	0	32	0	0	1	0	1	0	0	-1.4993	-0.8114	1.5000	0.8260;
	89	92	0.019539	0.36204	0	35.3	0	0	1	0	1	0	0	-0.0000	0.0000	0.0000	-0.0000;
	89	95	0.008734	0.056409	0.01076	221.1	0	0	1	0	1	0	0	-2.5016	-9.9364	2.5099	8.9079;
	89	188	0.00805	0.051996	0.00992	221.1	0	0	1	0	1	0	0	-38.9393	-1.2613	39.0614	1.0546;
	93	94	0.01068	0.280602	0	62.1	0	0	1	0	1	0	0	-5.3970	-0.1011	5.4000	0.1786;
	93	191	0.022088	0.142662	0.02722	221.1	0	0	1	0	1	0	0	7.6546	-0.1449	-7.6420	-2.6362;
	96	122	0.01062	0.073986	0.01209	221.1	0	0	1	0	1	0	0	-17.0212	8.2618	17.0601	-9.2007;
	96	143	0.015858	0.102423	0.01954	221.1	0	0	1	0	1	0	0	19.6935	-7.5803	-19.6254	6.0475;
	96	188	0.010903	0.070421	0.01343	221.1	0	0	1	0	1	0	0	-4.7398	-1.2682	4.7423	-0.0674;
	97	200	0.01318	0.085125	0.01624	221.1	0	0	1	0	1	0	0	18.8891	-9.3278	-18.8309	8.1165;
	98	99	0.000643	0.030516	0	250	0	0	1	0	1	0	0	35.0533	6.2376	-35.0448	-5.8308;
	98	123	0.0047	0.033574	0.06121	402.36	0	0	1	0	1	0	0	-35.0533	-6.2376	35.1146	0.8367;
	99	142	0.007605	0.052982	0.00866	221.1	0	0	1	0	1	0	0	27.6227	3.7146	-27.5601	-4.0946;
	100	174	0.010698	0.074531	0.01218	221.1	0	0	1	0	1	0	0	-9.4080	14.3885	9.4397	-15.4468;
	100	179	0.007093	0.049413	0.00808	221.1	0	0	1	0	1	0	0	-17.7022	28.0392	17.7774	-28.3621;
	100	184	0.012745	0.08879	0.01451	221.1	0	0	1	0	1	0	0	-4.1842	2.6913	4.1878	-4.2017;
	101	110	0.00196	0.012657	0.00241	221.1	0	0	1	0	1	0	0	-2.7756	-0.0246	2.7758	-0.2011;
	101	117	0.005245	0.035833	0.0061	221.1	0	0	1	0	1	0	0	-10.2401	-5.0766	10.2472	4.5502;
	101	141	0.003144	0.020305	0.00387	221.1	0	0	1	0	1	0	0	-2.3170	-0.0217	2.3172	-0.3412;
	102	103	0.001709	0.054578	0	250	0	0	1	0	1	0	0	14.3451	-1.9999	-14.3414	2.1175;
	102	104	0.0021	0.087749	0	130	0	0	1	0	1	0	0	-26.8820	7.7381	26.8989	-7.0325;
	102	105	0.00097	0.059419	0	260	0	0	1	0	1	0	0	-57.3474	22.5676	57.3852	-20.2485;
	102	128	0.0027	0.019292	0.03517	402.36	0	0	1	0	1	0	0	18.3537	13.2462	-18.3381	-16.5457;
	103	106	0.007749	0.053987	0.00883	221.1	0	0	1	0	1	0	0	5.2554	2.1002	-5.2527	-2.9406;
	106	130	0.006991	0.047761	0.00813	221.1	0	0	1	0	1	0	0	3.8138	2.5285	-3.8122	-3.3055;
	107	113	0.006748	0.046101	0.00784	221.1	0	0	1	0	1	0	0	-21.4225	-4.4754	21.4565	3.9659;
	107	129	0.005168	0.035307	0.00601	221.1	0	0	1	0	1	0	0	-18.0307	-3.7492	18.0492	3.3072;
	107	192	0.003939	0.025441	0.00485	221.1	0	0	1	0	1	0	0	2.7411	-2.2386	-2.7406	1.7841;
	108	198	0.024792	0.160126	0.03055	221.1	0	0	1	0	1	0	0	3.1267	-0.8312	-3.1241	-2.0623;
	109	186	0.008774	0.059942	0.0102	221.1	0	0	1	0	1	0	0	-19.8025	7.1555	19.8431	-7.8671;
	110	193	0.003444	0.022243	0.00424	221.1	0	0	1	0	1	0	0	-9.3989	-1.6834	9.4022	1.3057;
	111	163	0.005281	0.034111	0.00651	221.1	0	0	1	0	1	0	0	-5.5624	-1.1904	5.5640	0.5257;
	111	175	0.00795	0.055386	0.00905	221.1	0	0	1	0	1	0	0	0.2097	-0.3329	-0.2097	-0.6049;
	112	113	0.002077	0.058615	0	350	0	0	1	0	1	0	0	49.1534	12.0763	-49.0983	-10.5206;
	112	114	0.06	0.434013	0	20	0	0	1	0	1	0	0	-0.6963	-0.0542	0.6966	0.0564;
	112	115	0.00128	0.062771	0	200	0	0	1	0	1	0	0	-48.7635	14.4485	48.7978	-12.7664;
	112	128	0.001295	0.009255	0.01687	402.36	0	0	1	0	1	0	0	0.3905	-6.9787	-0.3900	5.3530;
	113	192	0.005418	0.034995	0.00668	221.1	0	0	1	0	1	0	0	30.2917	3.7112	-30.2384	-3.9998;
	116	117	0.000517	0.034943	0	300	0	0	1	0	1	0	0	59.4595	5.4711	-59.4401	-4.1585;
	116	133	0.00389	0.027793	0.05067	402.36	0	0	1	0	1	0	0	-59.4595	-5.4711	59.6048	1.6832;
	117	132	0.011912	0.082984	0.01357	221.1	0	0	1	0	1	0	0	22.7289	-0.6724	-22.6637	-0.1532;
	117	162	0.01617	0.104442	0.01993	221.1	0	0	1	0	1	0	0	5.6799	-5.6411	-5.6706	3.8094;
	118	131	0.00718	0.046377	0.00885	221.1	0	0	1	0	1	0	0	18.7573	4.8915	-18.7285	-5.5422;
	118	134	0.011598	0.0808	0.01321	221.1	0	0	1	0	1	0	0	-21.3113	-3.3994	21.3677	2.5329;
	118	198	0.009487	0.064809	0.01103	221.1	0	0	1	0	1	0	0	0.1512	-2.1751	-0.1509	1.1292;
	121	122	0.000786	0.063023	0	200	0	0	1	0	1	0	0	17.5364	4.3354	-17.5338	-4.1301;
	121	178	0.008903	0.063604	0.11596	402.36	0	0	1	0	1	0	0	37.9183	-19.6675	-37.7734	9.0188;
	121	187	0.001063	0.007593	0.01384	402.36	0	0	1	0	1	0	0	-94.8515	53.4889	94.9781	-53.9667;
	123	124	0.000329	0.017481	0	400	0	0	1	0	1	0	0	116.5158	17.5820	-116.4680	-15.0449;
	123	125	0.00448	0.104562	0	170	0	0	1	0	1	0	0	-38.9449	-9.2780	39.0200	11.0297;
	123	126	0.00148	0.066043	0	170	0	0	1	0	1	0	0	-38.9950	-9.8168	39.0200	10.9331;
	123	127	0.001	0.031691	0	170	0	0	1	0	1	0	0	-39.0031	-9.9359	39.0200	10.4725;
	123	133	0.001459	0.010423	0.019	402.36	0	0	1	0	1	0	0	-31.3734	8.1438	31.3896	-9.8444;
	123	156	0.001117	0.007981	0.01455	402.36	0	0	1	0	1	0	0	-3.3140	2.4682	3.3143	-3.8582;
	124	193	0.006577	0.04582	0.00749	221.1	0	0	1	0	1	0	0	32.3682	4.2300	-32.2942	-4.4233;
	128	129	0.000753	0.044453	0	250	0	0	1	0	1	0	0	72.0438	21.2765	-71.9998	-18.6808;
	128	133	0.009554	0.068257	0.12444	402.36	0	0	1	0	1	0	0	-53.0623	10.3232	53.3671	-20.1056;
	130	144	0.022678	0.157988	0.02583	221.1	0	0	1	0	1	0	0	0.7389	2.4324	-0.7356	-4.8944;
	133	134	0.0002	0.013328	0	400	0	0	1	0	1	0	0	101.8148	-11.5072	-101.7928	12.9713;
	133	135	0.00043	0.033512	0	580	0	0	1	0	1	0	0	-133.8370	23.2375	133.9200	-16.7675;
	133	136	0.00043	0.027478	0	580	0	0	1	0	1	0	0	-133.8371	22.6179	133.9200	-17.3209;
	133	156	0.001958	0.013985	0.0255	402.36	0	0	1	0	1	0	0	21.4978	-6.0813	-21.4878	3.7146;
	134	140	0.010445	0.071357	0.01214	221.1	0	0	1	0	1	0	0	17.7375	3.7675	-17.7011	-4.6770;
	134	186	0.014463	0.093412	0.01782	221.1	0	0	1	0	1	0	0	36.8629	-10.4159	-36.6441	10.1134;
	138	139	0.026477	0.184455	0.03015	221.1	0	0	1	0	1	0	0	0.4740	3.4335	-0.4675	-6.3217;
	138	195	0.008728	0.05637	0.01075	221.1	0	0	1	0	1	0	0	-1.7001	-3.7855	1.7013	2.7352;
	141	148	0.01019	0.065817	0.01256	221.1	0	0	1	0	1	0	0	11.8257	2.2473	-11.8096	-3.3216;
	141	193	0.002896	0.018702	0.00357	221.1	0	0	1	0	1	0	0	-10.5410	-2.0479	10.5445	1.7346;
	144	162	0.006962	0.048504	0.00793	221.1	0	0	1	0	1	0	0	-4.7837	3.3210	4.7863	-4.0595;
	145	176	0.008799	0.060111	0.01023	221.1	0	0	1	0	1	0	0	-6.0812	-1.3861	6.0845	0.3638;
	145	185	0.010839	0.075509	0.01234	221.1	0	0	1	0	1	0	0	-4.5273	-1.6380	4.5296	0.3938;
	146	147	0.0025	0.10181	0	130.6	0	0	1	0	1	0	0	-34.4062	6.0103	34.4378	-4.7248;
	146	177	0.011064	0.07708	0.0126	221.1	0	0	1	0	1	0	0	22.4047	-2.6180	-22.3467	1.8053;
	149	150	0.000412	0.020251	0	400	0	0	1	0	1	0	0	62.6129	-10.2562	-62.5967	11.0520;
	149	151	0.02267	0.625521	0	20	0	0	1	0	1	0	0	-1.6193	-0.6030	1.6200	0.6212;
	149	152	0.00249	0.141687	0	100	0	0	1	0	1	0	0	-23.1560	6.3068	23.1700	-5.5102;
	149	153	0.00549	0.184603	0	100	0	0	1	0	1	0	0	-23.1390	6.5683	23.1700	-5.5258;
	149	154	0.00249	0.10294	0	100	0	0	1	0	1	0	0	-23.1561	6.0705	23.1700	-5.4946;
	149	155	0.00249	0.099835	0	100	0	0	1	0	1	0	0	-23.1561	6.0514	23.1700	-5.4932;
	150	185	0.013458	0.091934	0.01564	221.1	0	0	1	0	1	0	0	11.0720	0.7587	-11.0556	-2.2506;
	150	194	0.003138	0.021435	0.00365	221.1	0	0	1	0	1	0	0	36.0882	-13.3802	-36.0431	13.3120;
	156	157	0.000592	0.045654	0	300	0	0	1	0	1	0	0	18.1735	0.1436	-18.1715	0.0141;
	160	161	0.00139	0.080288	0	180.2	0	0	1	0	1	0	0	0.0000	0.0000	0.0000	0.0000;
	160	181	0.004296	0.029345	0.00499	221.1	0	0	1	0	1	0	0	-7.6332	-3.6926	7.6362	3.2052;
	163	164	0.008207	0.11301	0	58.1	0	0	1	0	1	0	0	0.0000	0.0000	-0.0000	-0.0000;
	163	165	0.0074	0.301657	0	65	0	0	1	0	1	0	0	0.0000	0.0000	-0.0000	-0.0000;
	163	166	0.016368	0.382075	0	42	0	0	1	0	1	0	0	0.0000	0.0000	-0.0000	-0.0000;
	163	167	0.010476	0.196499	0	42	0	0	1	0	1	0	0	-2.8191	-0.9909	2.8200	1.0078;
	163	168	0.018	0.490983	0	40	0	0	1	0	1	0	0	0.0000	0.0000	0.0000	0.0000;
	163	169	0.016368	0.396417	0	40	0	0	1	0	1	0	0	-0.0000	0.0000	0.0000	-0.0000;
	163	170	0.016368	0.374902	0	35.6	0	0	1	0	1	0	0	-2.8186	-0.9465	2.8200	0.9785;
	163	179	0.00579	0.039557	0.00673	221.1	0	0	1	0	1	0	0	-29.0562	7.1522	29.1064	-7.5063;
	171	190	0.009866	0.0674	0.01147	221.1	0	0	1	0	1	0	0	6.6506	0.3623	-6.6461	-1.4560;
	171	195	0.011644	0.081116	0.01326	221.1	0	0	1	0	1	0	0	-11.3087	-1.6881	11.3239	0.4899;
	172	180	0.015296	0.106558	0.01742	221.1	0	0	1	0	1	0	0	1.3870	-3.2957	-1.3859	1.5037;
	172	199	0.024005	0.155042	0.02958	221.1	0	0	1	0	1	0	0	-4.6520	2.3672	4.6606	-5.3468;
	173	174	0.015373	0.099293	0.01894	221.1	0	0	1	0	1	0	0	-9.5139	-1.0774	9.5273	-0.8031;
	173	175	0.008572	0.055363	0.01056	221.1	0	0	1	0	1	0	0	4.2280	-0.4277	-4.2265	-0.6574;
	174	188	0.017952	0.12264	0.02087	221.1	0	0	1	0	1	0	0	-20.6481	15.7705	20.7707	-17.0695;
	178	179	0.000495	0.036157	0	250	0	0	1	0	1	0	0	61.2349	-30.1225	-61.2121	31.7842;
	180	191	0.026393	0.183866	0.03006	221.1	0	0	1	0	1	0	0	-3.2494	-4.4839	3.2543	1.3860;
	180	199	0.012185	0.078698	0.01501	221.1	0	0	1	0	1	0	0	-11.0093	10.1964	11.0377	-11.5564;
	181	182	0.01099	0.297746	0	60.3	0	0	1	0	1	0	0	-5.2470	-0.5656	5.2500	0.6470;
	181	183	0.004627	0.114254	0	65	0	0	1	0	1	0	0	-7.9771	0.0114	7.9800	0.0599;
	181	194	0.004395	0.028384	0.00542	221.1	0	0	1	0	1	0	0	-20.6997	-20.0381	20.7350	19.7107;
	187	188	0.001394	0.044762	0	400	0	0	1	0	1	0	0	64.6357	-14.1146	-64.5744	16.0824;
	187	189	0.0003	0.007815	0	740	0	0	1	0	1	0	0	-170.6568	42.6922	170.7500	-40.2632;
	195	196	0.00285	0.060038	0	87.7	0	0	1	0	1	0	0	0.0000	0.0000	0.0000	0.0000;
	195	197	0.00285	0.191484	0	87.7	0	0	1	0	1	0	0	0.0000	0.0000	-0.0000	-0.0000;
];

%% generator cost data
%	2	startup	shutdown	n	c(n-1)	...	c0
%	Using quadratic cost curves only
mpc.gencost = [
	2	0	0	3	0.002	19	236.12;
	2	0	0	3	0.002	19	236.12;
	2	0	0	3	0.002	19	236.12;
	2	0	0	3	0.002	19	236.12;
	2	0	0	3	0.002	19	236.24;
	2	0	0	3	0	0	0;
	2	0	0	3	0.002	19	236.13;
	2	0	0	3	0.002	19	236.74;
	2	0	0	3	0.002	19	236.74;
	2	0	0	3	0.002	19	236.74;
	2	0	0	3	0.002	19	236.74;
	2	0	0	3	0.002	19	236.74;
	2	0	0	3	0.002	19	236.74;
	2	0	0	3	0.002	23.157	606;
	2	0	0	3	0.002	23.146	603.6;
	2	0	0	3	0.002	23.252	627;
	2	0	0	3	0.002	23.252	627;
	2	0	0	3	0.002	23.152	604.8;
	2	0	0	3	0.002	23.164	607.5;
	2	0	0	3	0.002	23.173	609.45;
	2	0	0	3	0.002	19	236.48;
	2	0	0	3	0	0	0;
	2	0	0	3	0	0	0;
	2	0	0	3	0	0	0;
	2	0	0	3	0	0	0;
	2	0	0	3	0.002	19	610.14;
	2	0	0	3	0.002	19	610.14;
	2	0	0	3	0.002	19	610.14;
	2	0	0	3	0.002	19	1261.33;
	2	0	0	3	0.002	19	1261.33;
	2	0	0	3	0	0	0;
	2	0	0	3	0.002	19	236.14;
	2	0	0	3	0.002	19	253.01;
	2	0	0	3	0.002	19	253.01;
	2	0	0	3	0.002	19	253.01;
	2	0	0	3	0.002	19	253.01;
	2	0	0	3	0.002	24.07	807.9;
	2	0	0	3	0.002	23.211	618;
	2	0	0	3	0.002	23.306	639;
	2	0	0	3	0.002	23.194	614.1;
	2	0	0	3	0.002	23.194	614.1;
	2	0	0	3	0.002	23.194	614.1;
	2	0	0	3	0.002	23.194	614.1;
	2	0	0	3	0.002	23.194	614.1;
	2	0	0	3	0.002	19	236.47;
	2	0	0	3	0.002	19	236.71;
	2	0	0	3	0	6.71	1272.13;
	2	0	0	3	0.002	23.588	701.25;
	2	0	0	3	0.002	23.588	701.25;
];

%% generator fuel type
mpc.genfuel = {
	"coal";
	"coal";
	"coal";
	"coal";
	"coal";
	"wind";
	"coal";
	"coal";
	"coal";
	"coal";
	"coal";
	"coal";
	"coal";
	"ng";
	"ng";
	"ng";
	"ng";
	"ng";
	"ng";
	"ng";
	"coal";
	"wind";
	"wind";
	"wind";
	"wind";
	"coal";
	"coal";
	"coal";
	"coal";
	"coal";
	"wind";
	"coal";
	"coal";
	"coal";
	"coal";
	"coal";
	"ng";
	"ng";
	"ng";
	"ng";
	"ng";
	"ng";
	"ng";
	"ng";
	"coal";
	"coal";
	"nuclear";
	"ng";
	"ng";

};

%% summary data
mpc.summary_stats = [
%	Nbus	Ngen	NgenON	Nline	NlineON	Nload	GenPCap	GenTotalP	GenTotalQ	GenPCapON	LoadTotP	LoadTotalQ	LoadShedP	LoadShedQ
	200	49	38	245	245	108	3379.59	937.599952	-119.542405	2997.49	932.379258	265.715149	0	0
];

%% solve time
mpc.solve_time = 0;
